! EnergyPlus IDF File
! Generated by Professional IDF Creator
! Version: 24.2
! Date: 2025-11-11 21:03:09
! Professional Features: Advanced Geometry, Materials, HVAC Systems



Version,
  24.2;                    !- Version Identifier



SimulationControl,
  Yes,                     !- Do Zone Sizing Calculation
  Yes,                     !- Do System Sizing Calculation
  No,                      !- Do Plant Sizing Calculation
  Yes,                     !- Run Simulation for Sizing Periods
  Yes,                     !- Run Simulation for Weather File Run Periods
  No,                      !- Do HVAC Sizing Simulation for Sizing Periods
  1;                       !- Maximum Number of HVAC Sizing Simulation Passes



Building,
  Professional Building,                  !- Name
  0.0000,        !- North Axis
  Suburbs,                 !- Terrain
  0.0400,                  !- Loads Convergence Tolerance Value {W}
  0.2000,                  !- Temperature Convergence Tolerance Value {deltaC}
  MinimalShadowing,        !- Solar Distribution (simplified for complex geometries)
  15,                      !- Maximum Number of Warmup Days
  6;                       !- Minimum Number of Warmup Days



GlobalGeometryRules,
  UpperLeftCorner,        !- Starting Vertex Position
  CounterClockWise,       !- Vertex Entry Direction
  Relative;               !- Coordinate System



Timestep,4;

Site:Location,
  "1 Ferry Building - San Francisco - CA 94111", !- Name
  37.7955,          !- Latitude
  -122.3935,         !- Longitude
  -8.0,         !- Time Zone
  0.0;         !- Elevation {m}

Site:GroundTemperature:BuildingSurface,
  16.0, 15.0, 15.0, 15.0, 15.0, 16.0, 18.0, 19.0, 19.0, 18.0, 17.0, 16.0;  !- January through December Ground Temperatures {C}

Site:GroundTemperature:Shallow,
  14.0, 13.0, 12.0, 11.0, 12.0, 14.0, 16.0, 17.0, 17.0, 16.0, 15.0, 14.0;  !- January through December Ground Temperatures at 0.5m Depth {C}

Site:GroundTemperature:Deep,
  12.0, 11.0, 10.0, 9.0, 10.0, 12.0, 14.0, 15.0, 15.0, 14.0, 13.0, 12.0;  !- January through December Ground Temperatures at 3.0m Depth {C}



SizingPeriod:DesignDay,
  1 Ferry Building_ San Francisco_ CA 94111 Winter Design Day,             !- Name
  1,                          !- Month
  21,                         !- Day of Month
  WinterDesignDay,            !- Day Type
  -4.0,  !- Maximum Dry-Bulb Temperature {C}
  0.0,                        !- Daily Dry-Bulb Temperature Range {deltaC}
  ,                           !- Dry-Bulb Temperature Range Modifier Type
  ,                           !- Dry-Bulb Temperature Range Modifier Day Schedule Name
  WetBulb,                    !- Humidity Condition Type
  -6.0,  !- Wetbulb or DewPoint at Maximum Dry-Bulb {C}
  ,                           !- Humidity Condition Day Schedule Name
  ,                           !- Humidity Ratio at Maximum Dry-Bulb {kgWater/kgDryAir}
  ,                           !- Enthalpy at Maximum Dry-Bulb {J/kg}
  ,                           !- Daily Wet-Bulb Temperature Range {deltaC}
  101325,                 !- Barometric Pressure {Pa}
  4.5, !- Wind Speed {m/s}
  0, !- Wind Direction {deg}
  No,                         !- Rain Indicator
  No,                         !- Snow Indicator
  Yes,                        !- Daylight Saving Time Indicator
  ASHRAEClearSky,             !- Solar Model Indicator
  ,                           !- Beam Solar Day Schedule Name
  ,                           !- Diffuse Solar Day Schedule Name
  0.0,                        !- ASHRAE Clear Sky Optical Depth for Beam Irradiance (taub)
  0.0,                        !- ASHRAE Clear Sky Optical Depth for Diffuse Irradiance (taud)
  0.0;                        !- Sky Clearness

SizingPeriod:DesignDay,
  1 Ferry Building_ San Francisco_ CA 94111 Summer Design Day,             !- Name
  7,                          !- Month
  21,                         !- Day of Month
  SummerDesignDay,            !- Day Type
  32.0,  !- Maximum Dry-Bulb Temperature {C}
  11.0, !- Daily Dry-Bulb Temperature Range {deltaC}
  ,                           !- Dry-Bulb Temperature Range Modifier Type
  ,                           !- Dry-Bulb Temperature Range Modifier Day Schedule Name
  WetBulb,                    !- Humidity Condition Type
  22.0,  !- Wetbulb or DewPoint at Maximum Dry-Bulb {C}
  ,                           !- Humidity Condition Day Schedule Name
  ,                           !- Humidity Ratio at Maximum Dry-Bulb {kgWater/kgDryAir}
  ,                           !- Enthalpy at Maximum Dry-Bulb {J/kg}
  ,                           !- Daily Wet-Bulb Temperature Range {deltaC}
  101325,                 !- Barometric Pressure {Pa}
  4.5, !- Wind Speed {m/s}
  220, !- Wind Direction {deg}
  No,                         !- Rain Indicator
  No,                         !- Snow Indicator
  Yes,                        !- Daylight Saving Time Indicator
  ASHRAEClearSky,             !- Solar Model Indicator
  ,                           !- Beam Solar Day Schedule Name
  ,                           !- Diffuse Solar Day Schedule Name
  0.0,                        !- ASHRAE Clear Sky Optical Depth for Beam Irradiance (taub)
  0.0,                        !- ASHRAE Clear Sky Optical Depth for Diffuse Irradiance (taud)
  0.0;                        !- Sky Clearness



Material,
         Steel_Stud_25ga,                !- Name
         MediumRough,           !- Roughness
         0.000500,       !- Thickness {m}
         50.000000,    !- Conductivity {W/m-K}
         7850.0,         !- Density {kg/m3}
         450.0,   !- Specific Heat {J/kg-K}
         0.900000, !- Thermal Absorptance
         0.700000,   !- Solar Absorptance
         0.700000; !- Visible Absorptance

Material,
         Roof_Membrane,                !- Name
         MediumRough,           !- Roughness
         0.003000,       !- Thickness {m}
         0.160000,    !- Conductivity {W/m-K}
         1100.0,         !- Density {kg/m3}
         1460.0,   !- Specific Heat {J/kg-K}
         0.900000, !- Thermal Absorptance
         0.700000,   !- Solar Absorptance
         0.700000; !- Visible Absorptance

Material,
         Gypsum_Board_1_2,                !- Name
         MediumRough,           !- Roughness
         0.012700,       !- Thickness {m}
         0.160000,    !- Conductivity {W/m-K}
         800.0,         !- Density {kg/m3}
         1090.0,   !- Specific Heat {J/kg-K}
         0.900000, !- Thermal Absorptance
         0.700000,   !- Solar Absorptance
         0.700000; !- Visible Absorptance

Material,
         Insulation_SprayFoam_R20,                !- Name
         MediumRough,           !- Roughness
         0.127000,       !- Thickness {m}
         0.035000,    !- Conductivity {W/m-K}
         24.0,         !- Density {kg/m3}
         1000.0,   !- Specific Heat {J/kg-K}
         0.900000, !- Thermal Absorptance
         0.700000,   !- Solar Absorptance
         0.700000; !- Visible Absorptance

Material,
         Concrete_Heavy,                !- Name
         MediumRough,           !- Roughness
         0.203200,       !- Thickness {m}
         1.950000,    !- Conductivity {W/m-K}
         2242.0,         !- Density {kg/m3}
         900.0,   !- Specific Heat {J/kg-K}
         0.900000, !- Thermal Absorptance
         0.650000,   !- Solar Absorptance
         0.650000; !- Visible Absorptance

Material,
         Roof_Insulation_R20,                !- Name
         MediumRough,           !- Roughness
         0.127000,       !- Thickness {m}
         0.035000,    !- Conductivity {W/m-K}
         24.0,         !- Density {kg/m3}
         1000.0,   !- Specific Heat {J/kg-K}
         0.900000, !- Thermal Absorptance
         0.700000,   !- Solar Absorptance
         0.700000; !- Visible Absorptance

Material,
         Concrete_Medium,                !- Name
         MediumRough,           !- Roughness
         0.152400,       !- Thickness {m}
         1.950000,    !- Conductivity {W/m-K}
         2242.0,         !- Density {kg/m3}
         900.0,   !- Specific Heat {J/kg-K}
         0.900000, !- Thermal Absorptance
         0.650000,   !- Solar Absorptance
         0.650000; !- Visible Absorptance

WindowMaterial:SimpleGlazingSystem,
         Window_Double_Clear,                !- Name
         2.700000,        !- U-Factor {W/m2-K}
         0.780000; !- Solar Heat Gain Coefficient

Material,
         Insulation_Fiberglass_R19,                !- Name
         MediumRough,           !- Roughness
         0.152400,       !- Thickness {m}
         0.043000,    !- Conductivity {W/m-K}
         12.0,         !- Density {kg/m3}
         840.0,   !- Specific Heat {J/kg-K}
         0.900000, !- Thermal Absorptance
         0.700000,   !- Solar Absorptance
         0.700000; !- Visible Absorptance

Construction,
         Floor_Concrete_R20,            !- Name
         Concrete_Heavy,
         Insulation_SprayFoam_R20,
         Gypsum_Board_1_2;                !- Layer 1 through 3

Construction,
         Window_Double_CZ3_4,            !- Name
         Window_Double_Clear;                !- Layer 1 through 1

Construction,
         Roof_Flat_R20_CZ1_2,            !- Name
         Roof_Membrane,
         Roof_Insulation_R20,
         Concrete_Medium;                !- Layer 1 through 3

Construction,
         Wall_SteelFrame_R19_CZ3_4,            !- Name
         Gypsum_Board_1_2,
         Steel_Stud_25ga,
         Insulation_Fiberglass_R19,
         Gypsum_Board_1_2;                !- Layer 1 through 4

Zone,
  lobby_0,             !- Name
  0,                       !- Direction of Relative North {deg}
  0,                       !- X Origin {m}
  0,                       !- Y Origin {m}
  0,                       !- Z Origin {m}
  1,                       !- Type
  1,                       !- Multiplier
  autocalculate,           !- Ceiling Height {m}
  autocalculate,           !- Volume {m3}
  179.35,        !- Floor Area {m2}
  ,                        !- Zone Inside Convection Algorithm
  ,                        !- Zone Outside Convection Algorithm
  Yes;                     !- Part of Total Floor Area



Zone,
  conference_0,             !- Name
  0,                       !- Direction of Relative North {deg}
  0,                       !- X Origin {m}
  0,                       !- Y Origin {m}
  0,                       !- Z Origin {m}
  1,                       !- Type
  1,                       !- Multiplier
  autocalculate,           !- Ceiling Height {m}
  autocalculate,           !- Volume {m3}
  30.80,        !- Floor Area {m2}
  ,                        !- Zone Inside Convection Algorithm
  ,                        !- Zone Outside Convection Algorithm
  Yes;                     !- Part of Total Floor Area



Zone,
  break_room_0,             !- Name
  0,                       !- Direction of Relative North {deg}
  0,                       !- X Origin {m}
  0,                       !- Y Origin {m}
  0,                       !- Z Origin {m}
  1,                       !- Type
  1,                       !- Multiplier
  autocalculate,           !- Ceiling Height {m}
  autocalculate,           !- Volume {m3}
  59.99,        !- Floor Area {m2}
  ,                        !- Zone Inside Convection Algorithm
  ,                        !- Zone Outside Convection Algorithm
  Yes;                     !- Part of Total Floor Area



Zone,
  mechanical_0,             !- Name
  0,                       !- Direction of Relative North {deg}
  0,                       !- X Origin {m}
  0,                       !- Y Origin {m}
  0,                       !- Z Origin {m}
  1,                       !- Type
  1,                       !- Multiplier
  autocalculate,           !- Ceiling Height {m}
  autocalculate,           !- Volume {m3}
  66.15,        !- Floor Area {m2}
  ,                        !- Zone Inside Convection Algorithm
  ,                        !- Zone Outside Convection Algorithm
  Yes;                     !- Part of Total Floor Area



Zone,
  office_open_0,             !- Name
  0,                       !- Direction of Relative North {deg}
  0,                       !- X Origin {m}
  0,                       !- Y Origin {m}
  0,                       !- Z Origin {m}
  1,                       !- Type
  1,                       !- Multiplier
  autocalculate,           !- Ceiling Height {m}
  autocalculate,           !- Volume {m3}
  299.03,        !- Floor Area {m2}
  ,                        !- Zone Inside Convection Algorithm
  ,                        !- Zone Outside Convection Algorithm
  Yes;                     !- Part of Total Floor Area



Zone,
  office_private_0,             !- Name
  0,                       !- Direction of Relative North {deg}
  0,                       !- X Origin {m}
  0,                       !- Y Origin {m}
  0,                       !- Z Origin {m}
  1,                       !- Type
  1,                       !- Multiplier
  autocalculate,           !- Ceiling Height {m}
  autocalculate,           !- Volume {m3}
  299.04,        !- Floor Area {m2}
  ,                        !- Zone Inside Convection Algorithm
  ,                        !- Zone Outside Convection Algorithm
  Yes;                     !- Part of Total Floor Area



Zone,
  storage_0,             !- Name
  0,                       !- Direction of Relative North {deg}
  0,                       !- X Origin {m}
  0,                       !- Y Origin {m}
  0,                       !- Z Origin {m}
  1,                       !- Type
  1,                       !- Multiplier
  autocalculate,           !- Ceiling Height {m}
  autocalculate,           !- Volume {m3}
  228.96,        !- Floor Area {m2}
  ,                        !- Zone Inside Convection Algorithm
  ,                        !- Zone Outside Convection Algorithm
  Yes;                     !- Part of Total Floor Area



Zone,
  office_open_0_2,             !- Name
  0,                       !- Direction of Relative North {deg}
  0,                       !- X Origin {m}
  0,                       !- Y Origin {m}
  0,                       !- Z Origin {m}
  1,                       !- Type
  1,                       !- Multiplier
  autocalculate,           !- Ceiling Height {m}
  autocalculate,           !- Volume {m3}
  228.96,        !- Floor Area {m2}
  ,                        !- Zone Inside Convection Algorithm
  ,                        !- Zone Outside Convection Algorithm
  Yes;                     !- Part of Total Floor Area



Zone,
  office_open_0_3,             !- Name
  0,                       !- Direction of Relative North {deg}
  0,                       !- X Origin {m}
  0,                       !- Y Origin {m}
  0,                       !- Z Origin {m}
  1,                       !- Type
  1,                       !- Multiplier
  autocalculate,           !- Ceiling Height {m}
  autocalculate,           !- Volume {m3}
  299.04,        !- Floor Area {m2}
  ,                        !- Zone Inside Convection Algorithm
  ,                        !- Zone Outside Convection Algorithm
  Yes;                     !- Part of Total Floor Area



Zone,
  office_open_0_4,             !- Name
  0,                       !- Direction of Relative North {deg}
  0,                       !- X Origin {m}
  0,                       !- Y Origin {m}
  0,                       !- Z Origin {m}
  1,                       !- Type
  1,                       !- Multiplier
  autocalculate,           !- Ceiling Height {m}
  autocalculate,           !- Volume {m3}
  287.41,        !- Floor Area {m2}
  ,                        !- Zone Inside Convection Algorithm
  ,                        !- Zone Outside Convection Algorithm
  Yes;                     !- Part of Total Floor Area



Zone,
  office_open_0_5,             !- Name
  0,                       !- Direction of Relative North {deg}
  0,                       !- X Origin {m}
  0,                       !- Y Origin {m}
  0,                       !- Z Origin {m}
  1,                       !- Type
  1,                       !- Multiplier
  autocalculate,           !- Ceiling Height {m}
  autocalculate,           !- Volume {m3}
  299.03,        !- Floor Area {m2}
  ,                        !- Zone Inside Convection Algorithm
  ,                        !- Zone Outside Convection Algorithm
  Yes;                     !- Part of Total Floor Area



Zone,
  office_open_0_6,             !- Name
  0,                       !- Direction of Relative North {deg}
  0,                       !- X Origin {m}
  0,                       !- Y Origin {m}
  0,                       !- Z Origin {m}
  1,                       !- Type
  1,                       !- Multiplier
  autocalculate,           !- Ceiling Height {m}
  autocalculate,           !- Volume {m3}
  299.04,        !- Floor Area {m2}
  ,                        !- Zone Inside Convection Algorithm
  ,                        !- Zone Outside Convection Algorithm
  Yes;                     !- Part of Total Floor Area



Zone,
  office_open_0_7,             !- Name
  0,                       !- Direction of Relative North {deg}
  0,                       !- X Origin {m}
  0,                       !- Y Origin {m}
  0,                       !- Z Origin {m}
  1,                       !- Type
  1,                       !- Multiplier
  autocalculate,           !- Ceiling Height {m}
  autocalculate,           !- Volume {m3}
  75.45,        !- Floor Area {m2}
  ,                        !- Zone Inside Convection Algorithm
  ,                        !- Zone Outside Convection Algorithm
  Yes;                     !- Part of Total Floor Area



Zone,
  office_open_0_8,             !- Name
  0,                       !- Direction of Relative North {deg}
  0,                       !- X Origin {m}
  0,                       !- Y Origin {m}
  0,                       !- Z Origin {m}
  1,                       !- Type
  1,                       !- Multiplier
  autocalculate,           !- Ceiling Height {m}
  autocalculate,           !- Volume {m3}
  64.22,        !- Floor Area {m2}
  ,                        !- Zone Inside Convection Algorithm
  ,                        !- Zone Outside Convection Algorithm
  Yes;                     !- Part of Total Floor Area



Zone,
  office_open_0_9,             !- Name
  0,                       !- Direction of Relative North {deg}
  0,                       !- X Origin {m}
  0,                       !- Y Origin {m}
  0,                       !- Z Origin {m}
  1,                       !- Type
  1,                       !- Multiplier
  autocalculate,           !- Ceiling Height {m}
  autocalculate,           !- Volume {m3}
  244.11,        !- Floor Area {m2}
  ,                        !- Zone Inside Convection Algorithm
  ,                        !- Zone Outside Convection Algorithm
  Yes;                     !- Part of Total Floor Area



Zone,
  office_open_0_10,             !- Name
  0,                       !- Direction of Relative North {deg}
  0,                       !- X Origin {m}
  0,                       !- Y Origin {m}
  0,                       !- Z Origin {m}
  1,                       !- Type
  1,                       !- Multiplier
  autocalculate,           !- Ceiling Height {m}
  autocalculate,           !- Volume {m3}
  250.68,        !- Floor Area {m2}
  ,                        !- Zone Inside Convection Algorithm
  ,                        !- Zone Outside Convection Algorithm
  Yes;                     !- Part of Total Floor Area



Zone,
  office_open_0_11,             !- Name
  0,                       !- Direction of Relative North {deg}
  0,                       !- X Origin {m}
  0,                       !- Y Origin {m}
  0,                       !- Z Origin {m}
  1,                       !- Type
  1,                       !- Multiplier
  autocalculate,           !- Ceiling Height {m}
  autocalculate,           !- Volume {m3}
  299.03,        !- Floor Area {m2}
  ,                        !- Zone Inside Convection Algorithm
  ,                        !- Zone Outside Convection Algorithm
  Yes;                     !- Part of Total Floor Area



Zone,
  office_open_0_12,             !- Name
  0,                       !- Direction of Relative North {deg}
  0,                       !- X Origin {m}
  0,                       !- Y Origin {m}
  0,                       !- Z Origin {m}
  1,                       !- Type
  1,                       !- Multiplier
  autocalculate,           !- Ceiling Height {m}
  autocalculate,           !- Volume {m3}
  299.03,        !- Floor Area {m2}
  ,                        !- Zone Inside Convection Algorithm
  ,                        !- Zone Outside Convection Algorithm
  Yes;                     !- Part of Total Floor Area



Zone,
  office_open_0_13,             !- Name
  0,                       !- Direction of Relative North {deg}
  0,                       !- X Origin {m}
  0,                       !- Y Origin {m}
  0,                       !- Z Origin {m}
  1,                       !- Type
  1,                       !- Multiplier
  autocalculate,           !- Ceiling Height {m}
  autocalculate,           !- Volume {m3}
  156.27,        !- Floor Area {m2}
  ,                        !- Zone Inside Convection Algorithm
  ,                        !- Zone Outside Convection Algorithm
  Yes;                     !- Part of Total Floor Area



Zone,
  office_open_0_14,             !- Name
  0,                       !- Direction of Relative North {deg}
  0,                       !- X Origin {m}
  0,                       !- Y Origin {m}
  0,                       !- Z Origin {m}
  1,                       !- Type
  1,                       !- Multiplier
  autocalculate,           !- Ceiling Height {m}
  autocalculate,           !- Volume {m3}
  156.27,        !- Floor Area {m2}
  ,                        !- Zone Inside Convection Algorithm
  ,                        !- Zone Outside Convection Algorithm
  Yes;                     !- Part of Total Floor Area



Zone,
  office_open_0_15,             !- Name
  0,                       !- Direction of Relative North {deg}
  0,                       !- X Origin {m}
  0,                       !- Y Origin {m}
  0,                       !- Z Origin {m}
  1,                       !- Type
  1,                       !- Multiplier
  autocalculate,           !- Ceiling Height {m}
  autocalculate,           !- Volume {m3}
  299.03,        !- Floor Area {m2}
  ,                        !- Zone Inside Convection Algorithm
  ,                        !- Zone Outside Convection Algorithm
  Yes;                     !- Part of Total Floor Area



Zone,
  office_open_0_16,             !- Name
  0,                       !- Direction of Relative North {deg}
  0,                       !- X Origin {m}
  0,                       !- Y Origin {m}
  0,                       !- Z Origin {m}
  1,                       !- Type
  1,                       !- Multiplier
  autocalculate,           !- Ceiling Height {m}
  autocalculate,           !- Volume {m3}
  299.03,        !- Floor Area {m2}
  ,                        !- Zone Inside Convection Algorithm
  ,                        !- Zone Outside Convection Algorithm
  Yes;                     !- Part of Total Floor Area



Zone,
  office_open_0_17,             !- Name
  0,                       !- Direction of Relative North {deg}
  0,                       !- X Origin {m}
  0,                       !- Y Origin {m}
  0,                       !- Z Origin {m}
  1,                       !- Type
  1,                       !- Multiplier
  autocalculate,           !- Ceiling Height {m}
  autocalculate,           !- Volume {m3}
  299.03,        !- Floor Area {m2}
  ,                        !- Zone Inside Convection Algorithm
  ,                        !- Zone Outside Convection Algorithm
  Yes;                     !- Part of Total Floor Area



Zone,
  office_open_0_18,             !- Name
  0,                       !- Direction of Relative North {deg}
  0,                       !- X Origin {m}
  0,                       !- Y Origin {m}
  0,                       !- Z Origin {m}
  1,                       !- Type
  1,                       !- Multiplier
  autocalculate,           !- Ceiling Height {m}
  autocalculate,           !- Volume {m3}
  299.04,        !- Floor Area {m2}
  ,                        !- Zone Inside Convection Algorithm
  ,                        !- Zone Outside Convection Algorithm
  Yes;                     !- Part of Total Floor Area



Zone,
  office_open_0_19,             !- Name
  0,                       !- Direction of Relative North {deg}
  0,                       !- X Origin {m}
  0,                       !- Y Origin {m}
  0,                       !- Z Origin {m}
  1,                       !- Type
  1,                       !- Multiplier
  autocalculate,           !- Ceiling Height {m}
  autocalculate,           !- Volume {m3}
  299.03,        !- Floor Area {m2}
  ,                        !- Zone Inside Convection Algorithm
  ,                        !- Zone Outside Convection Algorithm
  Yes;                     !- Part of Total Floor Area



Zone,
  office_open_0_20,             !- Name
  0,                       !- Direction of Relative North {deg}
  0,                       !- X Origin {m}
  0,                       !- Y Origin {m}
  0,                       !- Z Origin {m}
  1,                       !- Type
  1,                       !- Multiplier
  autocalculate,           !- Ceiling Height {m}
  autocalculate,           !- Volume {m3}
  299.03,        !- Floor Area {m2}
  ,                        !- Zone Inside Convection Algorithm
  ,                        !- Zone Outside Convection Algorithm
  Yes;                     !- Part of Total Floor Area



Zone,
  office_open_0_21,             !- Name
  0,                       !- Direction of Relative North {deg}
  0,                       !- X Origin {m}
  0,                       !- Y Origin {m}
  0,                       !- Z Origin {m}
  1,                       !- Type
  1,                       !- Multiplier
  autocalculate,           !- Ceiling Height {m}
  autocalculate,           !- Volume {m3}
  299.04,        !- Floor Area {m2}
  ,                        !- Zone Inside Convection Algorithm
  ,                        !- Zone Outside Convection Algorithm
  Yes;                     !- Part of Total Floor Area



Zone,
  office_open_0_22,             !- Name
  0,                       !- Direction of Relative North {deg}
  0,                       !- X Origin {m}
  0,                       !- Y Origin {m}
  0,                       !- Z Origin {m}
  1,                       !- Type
  1,                       !- Multiplier
  autocalculate,           !- Ceiling Height {m}
  autocalculate,           !- Volume {m3}
  299.03,        !- Floor Area {m2}
  ,                        !- Zone Inside Convection Algorithm
  ,                        !- Zone Outside Convection Algorithm
  Yes;                     !- Part of Total Floor Area



Zone,
  office_open_0_23,             !- Name
  0,                       !- Direction of Relative North {deg}
  0,                       !- X Origin {m}
  0,                       !- Y Origin {m}
  0,                       !- Z Origin {m}
  1,                       !- Type
  1,                       !- Multiplier
  autocalculate,           !- Ceiling Height {m}
  autocalculate,           !- Volume {m3}
  299.03,        !- Floor Area {m2}
  ,                        !- Zone Inside Convection Algorithm
  ,                        !- Zone Outside Convection Algorithm
  Yes;                     !- Part of Total Floor Area



Zone,
  office_open_0_24,             !- Name
  0,                       !- Direction of Relative North {deg}
  0,                       !- X Origin {m}
  0,                       !- Y Origin {m}
  0,                       !- Z Origin {m}
  1,                       !- Type
  1,                       !- Multiplier
  autocalculate,           !- Ceiling Height {m}
  autocalculate,           !- Volume {m3}
  287.15,        !- Floor Area {m2}
  ,                        !- Zone Inside Convection Algorithm
  ,                        !- Zone Outside Convection Algorithm
  Yes;                     !- Part of Total Floor Area



Zone,
  office_open_0_25,             !- Name
  0,                       !- Direction of Relative North {deg}
  0,                       !- X Origin {m}
  0,                       !- Y Origin {m}
  0,                       !- Z Origin {m}
  1,                       !- Type
  1,                       !- Multiplier
  autocalculate,           !- Ceiling Height {m}
  autocalculate,           !- Volume {m3}
  299.03,        !- Floor Area {m2}
  ,                        !- Zone Inside Convection Algorithm
  ,                        !- Zone Outside Convection Algorithm
  Yes;                     !- Part of Total Floor Area



Zone,
  office_open_0_26,             !- Name
  0,                       !- Direction of Relative North {deg}
  0,                       !- X Origin {m}
  0,                       !- Y Origin {m}
  0,                       !- Z Origin {m}
  1,                       !- Type
  1,                       !- Multiplier
  autocalculate,           !- Ceiling Height {m}
  autocalculate,           !- Volume {m3}
  299.03,        !- Floor Area {m2}
  ,                        !- Zone Inside Convection Algorithm
  ,                        !- Zone Outside Convection Algorithm
  Yes;                     !- Part of Total Floor Area



Zone,
  office_open_0_27,             !- Name
  0,                       !- Direction of Relative North {deg}
  0,                       !- X Origin {m}
  0,                       !- Y Origin {m}
  0,                       !- Z Origin {m}
  1,                       !- Type
  1,                       !- Multiplier
  autocalculate,           !- Ceiling Height {m}
  autocalculate,           !- Volume {m3}
  289.81,        !- Floor Area {m2}